[General]
# 03号
# 实验设置
# GCL自适应	有
# GCL周期	400us
# 初始GCL	CT：100us,BE:300us
# 初始BE带宽	400Mbps
# 初始TT带宽	160Mbps
# 是否有TT流新增	有
# 每流量GCL调节步长	5us
# 每周期GCL调节步长	20us
# 触发调节的上下限	25us 10us
# TT调度方案	无等待
network = GCLadaptive

record-eventlog = false 
debug-on-errors = true
result-dir = results
sim-time-limit = 30ms

# debug
**.displayAddresses = true
**.verbose = true

# MAC Addresses
**.robotController1.eth.address = "00-00-00-00-00-01"
**.workstation1.eth.address = "00-00-00-00-00-02"
**.workstation2.eth.address = "00-00-00-00-00-03"
**.roboticArm.eth.address = "00-00-00-00-00-04"
**.robotController2.eth.address = "00-00-00-00-00-05"

# Switches
**.switch*.processingDelay.delay = 5us
**.filteringDatabase.database = xmldoc("xml/Routing.xml", "/filteringDatabases/")

**.switchA.eth[3].queue.gateController.initialSchedule = xmldoc("xml/GCL.xml", "/schedules/switch[@name='switchA']/port[@id='3']/schedule")
**.switch*.eth[*].queue.gateController.enableHoldAndRelease = false
**.switch*.eth[*].queue.numberOfQueues = 8
**.switch*.eth[*].queue.tsAlgorithms[0].typename = "StrictPriority"
**.switch*.eth[*].queue.tsAlgorithms[1].typename = "StrictPriority"
**.switch*.eth[*].queue.tsAlgorithms[2].typename = "StrictPriority"
**.switch*.eth[*].queue.tsAlgorithms[3].typename = "StrictPriority"
**.switch*.eth[*].queue.tsAlgorithms[4].typename = "StrictPriority"
**.switch*.eth[*].queue.tsAlgorithms[5].typename = "StrictPriority"
**.switch*.eth[*].queue.tsAlgorithms[6].typename = "StrictPriority"
**.switch*.eth[*].queue.tsAlgorithms[7].typename = "StrictPriority"
**.switch*.eth[*].queue.queues[0].expressQueue = false
**.switch*.eth[*].queue.queues[1].expressQueue = false
**.switch*.eth[*].queue.queues[2].expressQueue = false
**.switch*.eth[*].queue.queues[3].expressQueue = false
**.switch*.eth[*].queue.queues[4].expressQueue = false
**.switch*.eth[*].queue.queues[5].expressQueue = false
**.switch*.eth[*].queue.queues[6].expressQueue = false
**.switch*.eth[*].queue.queues[7].expressQueue = true
**.gateController.result_file_location = "results/gateController.txt"

**.queues[*].bufferCapacity = 363360b

**.switchA.eth[3].mac.enablePreemptingFrames = true

# Schedule/Routing Swap
#**.scheduleSwap.schedule = xmldoc("xml/TestScenarioScheduleSwap.xml")

# Robot Controller
**.robotController1.trafGenSchedApp.initialSchedule = xmldoc("xml/GCL.xml")
**.robotController2.trafGenSchedApp.initialSchedule = xmldoc("xml/GCL.xml")
**.robotController2.trafGenSchedApp.startTime = 10ms
**.robotController2.trafGenSchedApp.stopTime = 20ms

# Workstations
**.workstation*.trafGenApp.destAddress = "00-00-00-00-00-04"
**.workstation*.trafGenApp.packetLength = 1500Byte-4Byte # MTU-Size - VLAN-Tag-Size
**.workstation*.trafGenApp.sendInterval = 60us
**.workstation*.trafGenApp.vlanTagEnabled = true
**.workstation1.trafGenApp.pcp = 6
**.workstation2.trafGenApp.pcp = 5

# Robotic Arms
**.roboticArm.trafGenAppGCL.numPacketsPerBurst = 0
**.roboticArm.trafGenAppGCL.sendInterval = 1ms
**.roboticArm.trafGenAppGCL.packetLength = 100B
**.roboticArm.trafGenAppGCL.result_file_location = "results/roboticArm.txt"
# 设置GCL自适应参数 
# 设置单流量调节步长
**.roboticArm.trafGenAppGCL.increasesteplength = 5us
**.roboticArm.trafGenAppGCL.decreasesteplength = 5us
# 设置单次GCL更新最大增大步长和最大减小步长
**.roboticArm.trafGenAppGCL.maxIncreasesteplength = 20us
**.roboticArm.trafGenAppGCL.maxDecreasesteplength = 20us
# 设置触发调节的上限和下限 单位us
**.roboticArm.trafGenAppGCL.upperLimitTime = 25us
**.roboticArm.trafGenAppGCL.lowerLimitTime = 10us
